*HEADING
*MATERIAL, NAME=STEEL
*ELASTIC
210000, 0.3
*DENSITY
7.85e-09
*STEP
*STATIC
0.1, 1.0
*END STEP