*HEADING
*MATERIAL, NAME=STEEL
*DENSITY
7.85e-09
*STEP
*STATIC
0.1, 1.0
*END STEP
